Version 4
SHEET 1 880 680
WIRE 192 -112 64 -112
WIRE 64 -64 64 -112
WIRE 192 -32 192 -112
WIRE 416 -32 192 -32
WIRE 544 -32 416 -32
WIRE 592 -32 544 -32
WIRE 800 -32 672 -32
WIRE -16 16 -48 16
WIRE 64 16 -16 16
WIRE 80 16 64 16
WIRE 192 16 80 16
WIRE 800 32 800 -32
WIRE 416 64 416 48
WIRE 432 64 416 64
WIRE 544 64 544 32
WIRE 544 64 512 64
WIRE 416 96 416 64
WIRE 80 112 80 16
WIRE 192 144 192 96
WIRE 352 144 192 144
WIRE -208 192 -288 192
WIRE -32 192 -128 192
WIRE -16 192 -32 192
WIRE 80 192 48 192
WIRE 128 192 80 192
WIRE 416 240 416 192
WIRE -32 272 -32 192
WIRE 192 272 192 240
FLAG -288 272 0
FLAG 192 352 0
FLAG 800 112 0
FLAG -16 -64 0
FLAG -112 16 0
FLAG 416 240 0
FLAG -32 352 0
SYMBOL npn 128 144 R0
SYMATTR InstName Q1
SYMATTR Value 2N3904
SYMBOL res 176 256 R0
SYMATTR InstName R1
SYMATTR Value 10k
SYMBOL res 176 0 R0
SYMATTR InstName R2
SYMATTR Value 20k
SYMBOL res 48 -80 R0
SYMATTR InstName R3
SYMATTR Value 1k
SYMBOL res 688 -48 R90
WINDOW 0 0 56 VBottom 2
WINDOW 3 32 56 VTop 2
SYMATTR InstName R4
SYMATTR Value 2.2k
SYMBOL voltage 800 16 R0
WINDOW 123 0 0 Left 0
WINDOW 39 0 0 Left 0
SYMATTR InstName V1
SYMATTR Value 3.86
SYMBOL voltage -288 176 R0
WINDOW 123 24 124 Left 2
WINDOW 39 0 0 Left 0
SYMATTR InstName V2
SYMATTR Value SINE(0 100m 1k)
SYMATTR Value2 AC 100m
SYMBOL res -112 176 R90
WINDOW 0 0 56 VBottom 2
WINDOW 3 32 56 VTop 2
SYMATTR InstName R5
SYMATTR Value 10k
SYMBOL cap 48 176 R90
WINDOW 0 0 32 VBottom 2
WINDOW 3 32 32 VTop 2
SYMATTR InstName C1
SYMATTR Value 10µ
SYMBOL res -32 -80 R0
SYMATTR InstName R6
SYMATTR Value 10k
SYMBOL res 64 96 R0
SYMATTR InstName R7
SYMATTR Value 4.7Meg
SYMBOL cap -48 0 R90
WINDOW 0 0 32 VBottom 2
WINDOW 3 32 32 VTop 2
SYMATTR InstName C2
SYMATTR Value 10µ
SYMBOL pnp 352 192 M180
SYMATTR InstName Q2
SYMATTR Value 2N3906
SYMBOL cap 528 -32 R0
SYMATTR InstName C3
SYMATTR Value 10µ
SYMBOL res 528 48 R90
WINDOW 0 0 56 VBottom 2
WINDOW 3 32 56 VTop 2
SYMATTR InstName R8
SYMATTR Value 100
SYMBOL res 400 -48 R0
SYMATTR InstName R9
SYMATTR Value 3.3k
SYMBOL res -48 256 R0
SYMATTR InstName R10
SYMATTR Value 2.2Meg
TEXT -322 376 Left 2 !.tran 2
